Version 4
SHEET 1 880 680
WIRE 112 0 80 0
WIRE 288 0 192 0
WIRE -96 128 -112 128
WIRE -32 128 -96 128
WIRE 80 128 80 0
WIRE 80 128 48 128
WIRE 128 128 80 128
WIRE -112 144 -112 128
WIRE 288 144 288 0
WIRE 288 144 192 144
WIRE 336 144 288 144
WIRE 352 144 336 144
WIRE 608 144 608 128
WIRE 608 144 512 144
WIRE 128 160 112 160
WIRE 512 160 512 144
WIRE 608 176 608 144
WIRE -112 256 -112 224
WIRE 112 256 112 160
WIRE 112 256 -112 256
WIRE 352 256 352 224
WIRE 352 256 112 256
WIRE 112 272 112 256
FLAG 512 160 0
FLAG 608 48 +v12
FLAG 160 112 +v12
FLAG 608 256 -v12
FLAG 160 176 -v12
FLAG 112 272 0
FLAG 336 144 Vo
FLAG -96 128 Vi
SYMBOL Opamps\\opamp2 160 80 R0
SYMATTR InstName U1
SYMATTR Value LM741/NS
SYMBOL res 208 -16 R90
WINDOW 0 0 56 VBottom 2
WINDOW 3 32 56 VTop 2
SYMATTR InstName R2
SYMATTR Value 10K
SYMBOL voltage 608 32 R0
WINDOW 123 0 0 Left 2
WINDOW 39 0 0 Left 2
SYMATTR InstName V1
SYMATTR Value 12
SYMBOL voltage 608 160 R0
WINDOW 123 0 0 Left 2
WINDOW 39 0 0 Left 2
SYMATTR InstName V2
SYMATTR Value 12
SYMBOL res 64 112 R90
WINDOW 0 0 56 VBottom 2
WINDOW 3 32 56 VTop 2
SYMATTR InstName R1
SYMATTR Value 1K
SYMBOL Misc\\signal -112 128 R0
WINDOW 123 24 132 Left 2
WINDOW 39 0 0 Left 2
SYMATTR InstName V3
SYMATTR Value ""
SYMATTR Value2 AC 52m 0
TEXT -112 352 Left 2 !.lib LM741.MOD
TEXT -146 372 Left 2 !;tran 0 0.001 0 1u
TEXT 96 368 Left 2 !.ac oct 100 1 1meg
